!-Generator IDFEditor 1.49
!-Option SortedOrder

!-NOTE: All comments with '!-' are ignored by the IDFEditor and are generated automatically.
!-      Use '!' comments if they need to be retained when using the IDFEditor.


!-   ===========  ALL OBJECTS IN CLASS: VERSION ===========

! File generated by DesignBuilder - 6.1.5.004 10/7/2020 - 15:30:04
! Source file: C:\Users\ILEANA\Desktop\INV. Dpto. F?sica\2020\Modelos\Modelo 22a\Modelo 22a.dsb
Version,
    8.7;                     !- Version Identifier


!-   ===========  ALL OBJECTS IN CLASS: SIMULATIONCONTROL ===========

SimulationControl,
    No,                      !- Do Zone Sizing Calculation
    No,                      !- Do System Sizing Calculation
    No,                      !- Do Plant Sizing Calculation
    Yes,                     !- Run Simulation for Sizing Periods
    Yes,                     !- Run Simulation for Weather File Run Periods
    No,                      !- Do HVAC Sizing Simulation for Sizing Periods
    1;                       !- Maximum Number of HVAC Sizing Simulation Passes


!-   ===========  ALL OBJECTS IN CLASS: BUILDING ===========

Building,
    Building,                !- Name
    0,                       !- North Axis {deg}
    Suburbs,                 !- Terrain
    0.04,                    !- Loads Convergence Tolerance Value
    0.4,                     !- Temperature Convergence Tolerance Value {deltaC}
    FullExterior,            !- Solar Distribution
    25,                      !- Maximum Number of Warmup Days
    6;                       !- Minimum Number of Warmup Days


!-   ===========  ALL OBJECTS IN CLASS: TIMESTEP ===========

Timestep,
    6;                       !- Number of Timesteps per Hour


!-   ===========  ALL OBJECTS IN CLASS: SITE:LOCATION ===========

Site:Location,
    Template,                !- Name
    0.0,                     !- Latitude {deg}
    0.0,                     !- Longitude {deg}
    0.0,                     !- Time Zone {hr}
    0;                       !- Elevation {m}


!-   ===========  ALL OBJECTS IN CLASS: RUNPERIOD ===========

RunPeriod,
    Anual,                   !- Name
    1,                       !- Begin Month
    1,                       !- Begin Day of Month
    12,                      !- End Month
    31,                      !- End Day of Month
    UseWeatherFile,          !- Day of Week for Start Day
    No,                      !- Use Weather File Holidays and Special Days
    No,                      !- Use Weather File Daylight Saving Period
    No,                      !- Apply Weekend Holiday Rule
    Yes,                     !- Use Weather File Rain Indicators
    Yes,                     !- Use Weather File Snow Indicators
    1,                       !- Number of Times Runperiod to be Repeated
    Yes;                     !- Increment Day of Week on repeat


!-   ===========  ALL OBJECTS IN CLASS: SITE:WEATHERSTATION ===========

Site:WeatherStation,
    20,                      !- Wind Sensor Height Above Ground {m}
    0.14,                    !- Wind Speed Profile Exponent
    270,                     !- Wind Speed Profile Boundary Layer Thickness {m}
    1.5;                     !- Air Temperature Sensor Height Above Ground {m}


!-   ===========  ALL OBJECTS IN CLASS: SITE:HEIGHTVARIATION ===========

Site:HeightVariation,
    0.22,                    !- Wind Speed Profile Exponent
    370,                     !- Wind Speed Profile Boundary Layer Thickness {m}
    0.0065;                  !- Air Temperature Gradient Coefficient {K/m}


!-   ===========  ALL OBJECTS IN CLASS: SITE:GROUNDTEMPERATURE:SHALLOW ===========

Site:GroundTemperature:Shallow,
    21.93,                   !- January Surface Ground Temperature {C}
    20.89,                   !- February Surface Ground Temperature {C}
    18.9,                    !- March Surface Ground Temperature {C}
    17.02,                   !- April Surface Ground Temperature {C}
    13.49,                   !- May Surface Ground Temperature {C}
    11.64,                   !- June Surface Ground Temperature {C}
    11.15,                   !- July Surface Ground Temperature {C}
    12.12,                   !- August Surface Ground Temperature {C}
    14.32,                   !- September Surface Ground Temperature {C}
    17.05,                   !- October Surface Ground Temperature {C}
    19.72,                   !- November Surface Ground Temperature {C}
    21.47;                   !- December Surface Ground Temperature {C}


!-   ===========  ALL OBJECTS IN CLASS: SITE:GROUNDTEMPERATURE:UNDISTURBED:KUSUDAACHENBACH ===========

Site:GroundTemperature:Undisturbed:KusudaAchenbach,
    GroundTemp_KA,           !- Name
    1.5,                     !- Soil Thermal Conductivity {W/m-K}
    1500,                    !- Soil Density {kg/m3}
    2085,                    !- Soil Specific Heat {J/kg-K}
    ,                        !- Average Soil Surface Temperature {C}
    ,                        !- Average Amplitude of Surface Temperature {deltaC}
    ;                        !- Phase Shift of Minimum Surface Temperature {days}


!-   ===========  ALL OBJECTS IN CLASS: SITE:GROUNDDOMAIN:SLAB ===========

Site:GroundDomain:Slab,
    Base,                    !- Name
    10,                      !- Ground Domain Depth {m}
    0.579258125686,          !- Aspect Ratio
    5,                       !- Perimeter Offset {m}
    1.5,                     !- Soil Thermal Conductivity {W/m-K}
    2800,                    !- Soil Density {kg/m3}
    850,                     !- Soil Specific Heat {J/kg-K}
    30,                      !- Soil Moisture Content Volume Fraction {percent}
    50,                      !- Soil Moisture Content Volume Fraction at Saturation {percent}
    Site:GroundTemperature:Undisturbed:KusudaAchenbach,  !- Undisturbed Ground Temperature Model Type
    GroundTemp_KA,           !- Undisturbed Ground Temperature Model Name
    0,                       !- Evapotranspiration Ground Cover Parameter
    GroundCoupled_OSC,       !- Slab Boundary Condition Model Name
    OnGrade,                 !- Slab Location
    ,                        !- Slab Material Name
    No,                      !- Horizontal Insulation
    ,                        !- Horizontal Insulation Material Name
    Full,                    !- Horizontal Insulation Extents
    ,                        !- Perimeter Insulation Width {m}
    No,                      !- Vertical Insulation
    ,                        !- Vertical Insulation Material Name
    ,                        !- Vertical Insulation Depth {m}
    Hourly,                  !- Simulation Timestep
    1.6,                     !- Geometric Mesh Coefficient
    6;                       !- Mesh Density Parameter


!-   ===========  ALL OBJECTS IN CLASS: SCHEDULETYPELIMITS ===========

ScheduleTypeLimits,
    Any Number,              !- Name
    ,                        !- Lower Limit Value
    ,                        !- Upper Limit Value
    ,                        !- Numeric Type
    Dimensionless;           !- Unit Type

ScheduleTypeLimits,
    Fraction,                !- Name
    0,                       !- Lower Limit Value
    1,                       !- Upper Limit Value
    CONTINUOUS,              !- Numeric Type
    Dimensionless;           !- Unit Type

ScheduleTypeLimits,
    Temperature,             !- Name
    -60,                     !- Lower Limit Value
    200,                     !- Upper Limit Value
    CONTINUOUS,              !- Numeric Type
    Temperature;             !- Unit Type

ScheduleTypeLimits,
    Control Type,            !- Name
    0,                       !- Lower Limit Value
    7,                       !- Upper Limit Value
    Discrete,                !- Numeric Type
    Dimensionless;           !- Unit Type


!-   ===========  ALL OBJECTS IN CLASS: SCHEDULE:COMPACT ===========

Schedule:Compact,
    OcupacionCasa,           !- Name
    Fraction,                !- Schedule Type Limits Name
    Through: 12/31,          !- Field 1
    For: AllDays,            !- Field 2
    Until: 8:00,             !- Field 3
    1,                       !- Field 4
    Until: 14:00,            !- Field 5
    0,                       !- Field 6
    Until: 24:00,            !- Field 7
    1;                       !- Field 8

Schedule:Compact,
    Siempre1,                !- Name
    Fraction,                !- Schedule Type Limits Name
    Through: 12/31,          !- Field 1
    For: AllDays,            !- Field 2
    Until: 24:00,            !- Field 3
    1;                       !- Field 4

Schedule:Compact,
    Siempre0,                !- Name
    Fraction,                !- Schedule Type Limits Name
    Through: 12/31,          !- Field 1
    For: AllDays,            !- Field 2
    Until: 24:00,            !- Field 3
    0;                       !- Field 4

Schedule:Compact,
    HybridControl,           !- Name
    Control Type,            !- Schedule Type Limits Name
    Through: 12/31,          !- Field 1
    For: AllDays,            !- Field 2
    Until: 24:00,            !- Field 3
    0;                       !- Field 4

Schedule:Compact,
    Siempre4,                !- Name
    Any Number,              !- Schedule Type Limits Name
    Through: 12/31,          !- Field 1
    For: AllDays,            !- Field 2
    Until: 24:00,            !- Field 3
    4;                       !- Field 4

Schedule:Compact,
    Siempre23,               !- Name
    Any Number,              !- Schedule Type Limits Name
    Through: 12/31,          !- Field 1
    For: AllDays,            !- Field 2
    Until: 24:00,            !- Field 3
    23;                      !- Field 4

Schedule:Compact,
    Siempre3,                !- Name
    Any Number,              !- Schedule Type Limits Name
    Through: 12/31,          !- Field 1
    For: AllDays,            !- Field 2
    Until: 24:00,            !- Field 3
    3;                       !- Field 4

Schedule:Compact,
    Siempre24,               !- Name
    Any Number,              !- Schedule Type Limits Name
    Through: 12/31,          !- Field 1
    For: AllDays,            !- Field 2
    Until: 24:00,            !- Field 3
    24;                      !- Field 4

Schedule:Compact,
    Siempre21,               !- Name
    Any Number,              !- Schedule Type Limits Name
    Through: 12/31,          !- Field 1
    For: AllDays,            !- Field 2
    Until: 24:00,            !- Field 3
    21;                      !- Field 4

Schedule:Compact,
    PeriodoFrio,             !- Name
    Any Number,              !- Schedule Type Limits Name
    Through: 04/30,          !- Field 1
    For: Alldays,            !- Field 2
    Until: 24:00,            !- Field 3
    0,                       !- Field 4
    Through: 09/30,          !- Field 5
    For: Alldays,            !- Field 6
    Until: 24:00,            !- Field 7
    1,                       !- Field 8
    Through: 12/31,          !- Field 9
    For: Alldays,            !- Field 10
    Until: 24:00,            !- Field 11
    0;                       !- Field 12

Schedule:Compact,
    Tcomfort_Montevideo,     !- Name
    Any Number,              !- Schedule Type Limits Name
    Through: 01/01,          !- Field 1
    For: Alldays,            !- Field 2
    Until: 24:00,            !- Field 3
    22.0293765089515,        !- Field 4
    Through: 01/02,          !- Field 5
    For: Alldays,            !- Field 6
    Until: 24:00,            !- Field 7
    22.1146972919864,        !- Field 8
    Through: 01/03,          !- Field 9
    For: Alldays,            !- Field 10
    Until: 24:00,            !- Field 11
    22.2008911785498,        !- Field 12
    Through: 01/04,          !- Field 13
    For: Alldays,            !- Field 14
    Until: 24:00,            !- Field 15
    22.2846568429685,        !- Field 16
    Through: 01/05,          !- Field 17
    For: Alldays,            !- Field 18
    Until: 24:00,            !- Field 19
    22.357421059314,         !- Field 20
    Through: 01/06,          !- Field 21
    For: Alldays,            !- Field 22
    Until: 24:00,            !- Field 23
    22.3997736906702,        !- Field 24
    Through: 01/07,          !- Field 25
    For: Alldays,            !- Field 26
    Until: 24:00,            !- Field 27
    22.4502154935738,        !- Field 28
    Through: 01/08,          !- Field 29
    For: Alldays,            !- Field 30
    Until: 24:00,            !- Field 31
    22.5123661808251,        !- Field 32
    Through: 01/09,          !- Field 33
    For: Alldays,            !- Field 34
    Until: 24:00,            !- Field 35
    22.5731627710938,        !- Field 36
    Through: 01/10,          !- Field 37
    For: Alldays,            !- Field 38
    Until: 24:00,            !- Field 39
    22.6362527157611,        !- Field 40
    Through: 01/11,          !- Field 41
    For: Alldays,            !- Field 42
    Until: 24:00,            !- Field 43
    22.709998458569,         !- Field 44
    Through: 01/12,          !- Field 45
    For: Alldays,            !- Field 46
    Until: 24:00,            !- Field 47
    22.7871272136538,        !- Field 48
    Through: 01/13,          !- Field 49
    For: Alldays,            !- Field 50
    Until: 24:00,            !- Field 51
    22.8710998250505,        !- Field 52
    Through: 01/14,          !- Field 53
    For: Alldays,            !- Field 54
    Until: 24:00,            !- Field 55
    22.9659363123636,        !- Field 56
    Through: 01/15,          !- Field 57
    For: Alldays,            !- Field 58
    Until: 24:00,            !- Field 59
    23.0031319538034,        !- Field 60
    Through: 01/16,          !- Field 61
    For: Alldays,            !- Field 62
    Until: 24:00,            !- Field 63
    23.0304622775655,        !- Field 64
    Through: 01/17,          !- Field 65
    For: Alldays,            !- Field 66
    Until: 24:00,            !- Field 67
    23.0526047386837,        !- Field 68
    Through: 01/18,          !- Field 69
    For: Alldays,            !- Field 70
    Until: 24:00,            !- Field 71
    23.0857202288757,        !- Field 72
    Through: 01/19,          !- Field 73
    For: Alldays,            !- Field 74
    Until: 24:00,            !- Field 75
    23.1229415916169,        !- Field 76
    Through: 01/20,          !- Field 77
    For: Alldays,            !- Field 78
    Until: 24:00,            !- Field 79
    23.1700018718963,        !- Field 80
    Through: 01/21,          !- Field 81
    For: Alldays,            !- Field 82
    Until: 24:00,            !- Field 83
    23.2338781983887,        !- Field 84
    Through: 01/22,          !- Field 85
    For: Alldays,            !- Field 86
    Until: 24:00,            !- Field 87
    23.2733799436276,        !- Field 88
    Through: 01/23,          !- Field 89
    For: Alldays,            !- Field 90
    Until: 24:00,            !- Field 91
    23.3027529269881,        !- Field 92
    Through: 01/24,          !- Field 93
    For: Alldays,            !- Field 94
    Until: 24:00,            !- Field 95
    23.3803306071996,        !- Field 96
    Through: 01/25,          !- Field 97
    For: Alldays,            !- Field 98
    Until: 24:00,            !- Field 99
    23.4633737536263,        !- Field 100
    Through: 01/26,          !- Field 101
    For: Alldays,            !- Field 102
    Until: 24:00,            !- Field 103
    23.5283066655425,        !- Field 104
    Through: 01/27,          !- Field 105
    For: Alldays,            !- Field 106
    Until: 24:00,            !- Field 107
    23.5760344063207,        !- Field 108
    Through: 01/28,          !- Field 109
    For: Alldays,            !- Field 110
    Until: 24:00,            !- Field 111
    23.6078911298137,        !- Field 112
    Through: 01/29,          !- Field 113
    For: Alldays,            !- Field 114
    Until: 24:00,            !- Field 115
    23.6832484625236,        !- Field 116
    Through: 01/30,          !- Field 117
    For: Alldays,            !- Field 118
    Until: 24:00,            !- Field 119
    23.7244193471062,        !- Field 120
    Through: 01/31,          !- Field 121
    For: Alldays,            !- Field 122
    Until: 24:00,            !- Field 123
    23.7780099984989,        !- Field 124
    Through: 02/01,          !- Field 125
    For: Alldays,            !- Field 126
    Until: 24:00,            !- Field 127
    23.8296779522527,        !- Field 128
    Through: 02/02,          !- Field 129
    For: Alldays,            !- Field 130
    Until: 24:00,            !- Field 131
    23.8512213260665,        !- Field 132
    Through: 02/03,          !- Field 133
    For: Alldays,            !- Field 134
    Until: 24:00,            !- Field 135
    23.867762559642,         !- Field 136
    Through: 02/04,          !- Field 137
    For: Alldays,            !- Field 138
    Until: 24:00,            !- Field 139
    23.8981186224688,        !- Field 140
    Through: 02/05,          !- Field 141
    For: Alldays,            !- Field 142
    Until: 24:00,            !- Field 143
    23.9318975387569,        !- Field 144
    Through: 02/06,          !- Field 145
    For: Alldays,            !- Field 146
    Until: 24:00,            !- Field 147
    23.9889055837612,        !- Field 148
    Through: 02/07,          !- Field 149
    For: Alldays,            !- Field 150
    Until: 24:00,            !- A153
    24.0064402124507,        !- A154
    Through: 02/08,          !- A155
    For: Alldays,            !- A156
    Until: 24:00,            !- A157
    24.0013889646282,        !- A158
    Through: 02/09,          !- A159
    For: Alldays,            !- A160
    Until: 24:00,            !- A161
    23.9743755361777,        !- A162
    Through: 02/10,          !- A163
    For: Alldays,            !- A164
    Until: 24:00,            !- A165
    23.9615236664532,        !- A166
    Through: 02/11,          !- A167
    For: Alldays,            !- A168
    Until: 24:00,            !- A169
    23.9612849146085,        !- A170
    Through: 02/12,          !- A171
    For: Alldays,            !- A172
    Until: 24:00,            !- A173
    23.9647999544919,        !- A174
    Through: 02/13,          !- A175
    For: Alldays,            !- A176
    Until: 24:00,            !- A177
    23.9626149560089,        !- A178
    Through: 02/14,          !- A179
    For: Alldays,            !- A180
    Until: 24:00,            !- A181
    23.9804662167345,        !- A182
    Through: 02/15,          !- A183
    For: Alldays,            !- A184
    Until: 24:00,            !- A185
    24.010409472473,         !- A186
    Through: 02/16,          !- A187
    For: Alldays,            !- A188
    Until: 24:00,            !- A189
    24.0435955919091,        !- A190
    Through: 02/17,          !- A191
    For: Alldays,            !- A192
    Until: 24:00,            !- A193
    24.0977343036602,        !- A194
    Through: 02/18,          !- A195
    For: Alldays,            !- A196
    Until: 24:00,            !- A197
    24.1361973268716,        !- A198
    Through: 02/19,          !- A199
    For: Alldays,            !- A200
    Until: 24:00,            !- A201
    24.1643222307907,        !- A202
    Through: 02/20,          !- A203
    For: Alldays,            !- A204
    Until: 24:00,            !- A205
    24.2028332490236,        !- A206
    Through: 02/21,          !- A207
    For: Alldays,            !- A208
    Until: 24:00,            !- A209
    24.2472364925746,        !- A210
    Through: 02/22,          !- A211
    For: Alldays,            !- A212
    Until: 24:00,            !- A213
    24.2863850909703,        !- A214
    Through: 02/23,          !- A215
    For: Alldays,            !- A216
    Until: 24:00,            !- A217
    24.3060736434935,        !- A218
    Through: 02/24,          !- A219
    For: Alldays,            !- A220
    Until: 24:00,            !- A221
    24.3206855405622,        !- A222
    Through: 02/25,          !- A223
    For: Alldays,            !- A224
    Until: 24:00,            !- A225
    24.3087617632842,        !- A226
    Through: 02/26,          !- A227
    For: Alldays,            !- A228
    Until: 24:00,            !- A229
    24.3070521119155,        !- A230
    Through: 02/27,          !- A231
    For: Alldays,            !- A232
    Until: 24:00,            !- A233
    24.3053276896665,        !- A234
    Through: 02/28,          !- A235
    For: Alldays,            !- A236
    Until: 24:00,            !- A237
    24.2977621370479,        !- A238
    Through: 03/01,          !- A239
    For: Alldays,            !- A240
    Until: 24:00,            !- A241
    24.2777258528501,        !- A242
    Through: 03/02,          !- A243
    For: Alldays,            !- A244
    Until: 24:00,            !- A245
    24.2992889262736,        !- A246
    Through: 03/03,          !- A247
    For: Alldays,            !- A248
    Until: 24:00,            !- A249
    24.3018130916941,        !- A250
    Through: 03/04,          !- A251
    For: Alldays,            !- A252
    Until: 24:00,            !- A253
    24.3119457108598,        !- A254
    Through: 03/05,          !- A255
    For: Alldays,            !- A256
    Until: 24:00,            !- A257
    24.3412016871645,        !- A258
    Through: 03/06,          !- A259
    For: Alldays,            !- A260
    Until: 24:00,            !- A261
    24.3607995938887,        !- A262
    Through: 03/07,          !- A263
    For: Alldays,            !- A264
    Until: 24:00,            !- A265
    24.3831743296479,        !- A266
    Through: 03/08,          !- A267
    For: Alldays,            !- A268
    Until: 24:00,            !- A269
    24.4117925927337,        !- A270
    Through: 03/09,          !- A271
    For: Alldays,            !- A272
    Until: 24:00,            !- A273
    24.4485846914945,        !- A274
    Through: 03/10,          !- A275
    For: Alldays,            !- A276
    Until: 24:00,            !- A277
    24.4828156647409,        !- A278
    Through: 03/11,          !- A279
    For: Alldays,            !- A280
    Until: 24:00,            !- A281
    24.512016253694,         !- A282
    Through: 03/12,          !- A283
    For: Alldays,            !- A284
    Until: 24:00,            !- A285
    24.5059569156079,        !- A286
    Through: 03/13,          !- A287
    For: Alldays,            !- A288
    Until: 24:00,            !- A289
    24.4773231665691,        !- A290
    Through: 03/14,          !- A291
    For: Alldays,            !- A292
    Until: 24:00,            !- A293
    24.4419656350909,        !- A294
    Through: 03/15,          !- A295
    For: Alldays,            !- A296
    Until: 24:00,            !- A297
    24.4203015028101,        !- A298
    Through: 03/16,          !- A299
    For: Alldays,            !- A300
    Until: 24:00,            !- A301
    24.4165817304942,        !- A302
    Through: 03/17,          !- A303
    For: Alldays,            !- A304
    Until: 24:00,            !- A305
    24.4084220617,           !- A306
    Through: 03/18,          !- A307
    For: Alldays,            !- A308
    Until: 24:00,            !- A309
    24.3991566040877,        !- A310
    Through: 03/19,          !- A311
    For: Alldays,            !- A312
    Until: 24:00,            !- A313
    24.403719439507,         !- A314
    Through: 03/20,          !- A315
    For: Alldays,            !- A316
    Until: 24:00,            !- A317
    24.4276199952272,        !- A318
    Through: 03/21,          !- A319
    For: Alldays,            !- A320
    Until: 24:00,            !- A321
    24.3960433102011,        !- A322
    Through: 03/22,          !- A323
    For: Alldays,            !- A324
    Until: 24:00,            !- A325
    24.3481677924536,        !- A326
    Through: 03/23,          !- A327
    For: Alldays,            !- A328
    Until: 24:00,            !- A329
    24.2935066438163,        !- A330
    Through: 03/24,          !- A331
    For: Alldays,            !- A332
    Until: 24:00,            !- A333
    24.2621092001335,        !- A334
    Through: 03/25,          !- A335
    For: Alldays,            !- A336
    Until: 24:00,            !- A337
    24.2557115786476,        !- A338
    Through: 03/26,          !- A339
    For: Alldays,            !- A340
    Until: 24:00,            !- A341
    24.2375864704704,        !- A342
    Through: 03/27,          !- A343
    For: Alldays,            !- A344
    Until: 24:00,            !- A345
    24.2360965510844,        !- A346
    Through: 03/28,          !- A347
    For: Alldays,            !- A348
    Until: 24:00,            !- A349
    24.2475155549371,        !- A350
    Through: 03/29,          !- A351
    For: Alldays,            !- A352
    Until: 24:00,            !- A353
    24.2714131845874,        !- A354
    Through: 03/30,          !- A355
    For: Alldays,            !- A356
    Until: 24:00,            !- A357
    24.2606869117678,        !- A358
    Through: 03/31,          !- A359
    For: Alldays,            !- A360
    Until: 24:00,            !- A361
    24.2296945702644,        !- A362
    Through: 04/01,          !- A363
    For: Alldays,            !- A364
    Until: 24:00,            !- A365
    24.2034452605149,        !- A366
    Through: 04/02,          !- A367
    For: Alldays,            !- A368
    Until: 24:00,            !- A369
    24.2117116684977,        !- A370
    Through: 04/03,          !- A371
    For: Alldays,            !- A372
    Until: 24:00,            !- A373
    24.2112134091774,        !- A374
    Through: 04/04,          !- A375
    For: Alldays,            !- A376
    Until: 24:00,            !- A377
    24.1987910177604,        !- A378
    Through: 04/05,          !- A379
    For: Alldays,            !- A380
    Until: 24:00,            !- A381
    24.1772387245758,        !- A382
    Through: 04/06,          !- A383
    For: Alldays,            !- A384
    Until: 24:00,            !- A385
    24.1532761374603,        !- A386
    Through: 04/07,          !- A387
    For: Alldays,            !- A388
    Until: 24:00,            !- A389
    24.1094169328783,        !- A390
    Through: 04/08,          !- A391
    For: Alldays,            !- A392
    Until: 24:00,            !- A393
    24.0552511832638,        !- A394
    Through: 04/09,          !- A395
    For: Alldays,            !- A396
    Until: 24:00,            !- A397
    24.001879153081,         !- A398
    Through: 04/10,          !- A399
    For: Alldays,            !- A400
    Until: 24:00,            !- A401
    23.9576917461264,        !- A402
    Through: 04/11,          !- A403
    For: Alldays,            !- A404
    Until: 24:00,            !- A405
    23.9332973916259,        !- A406
    Through: 04/12,          !- A407
    For: Alldays,            !- A408
    Until: 24:00,            !- A409
    23.9176527563495,        !- A410
    Through: 04/13,          !- A411
    For: Alldays,            !- A412
    Until: 24:00,            !- A413
    23.8918303033601,        !- A414
    Through: 04/14,          !- A415
    For: Alldays,            !- A416
    Until: 24:00,            !- A417
    23.8192993858406,        !- A418
    Through: 04/15,          !- A419
    For: Alldays,            !- A420
    Until: 24:00,            !- A421
    23.7701613970534,        !- A422
    Through: 04/16,          !- A423
    For: Alldays,            !- A424
    Until: 24:00,            !- A425
    23.730375461596,         !- A426
    Through: 04/17,          !- A427
    For: Alldays,            !- A428
    Until: 24:00,            !- A429
    23.6935087795428,        !- A430
    Through: 04/18,          !- A431
    For: Alldays,            !- A432
    Until: 24:00,            !- A433
    23.6386108017062,        !- A434
    Through: 04/19,          !- A435
    For: Alldays,            !- A436
    Until: 24:00,            !- A437
    23.6169733120197,        !- A438
    Through: 04/20,          !- A439
    For: Alldays,            !- A440
    Until: 24:00,            !- A441
    23.6100788312487,        !- A442
    Through: 04/21,          !- A443
    For: Alldays,            !- A444
    Until: 24:00,            !- A445
    23.6039738887256,        !- A446
    Through: 04/22,          !- A447
    For: Alldays,            !- A448
    Until: 24:00,            !- A449
    23.5962354072495,        !- A450
    Through: 04/23,          !- A451
    For: Alldays,            !- A452
    Until: 24:00,            !- A453
    23.5833729307116,        !- A454
    Through: 04/24,          !- A455
    For: Alldays,            !- A456
    Until: 24:00,            !- A457
    23.5831669811694,        !- A458
    Through: 04/25,          !- A459
    For: Alldays,            !- A460
    Until: 24:00,            !- A461
    23.5656452114267,        !- A462
    Through: 04/26,          !- A463
    For: Alldays,            !- A464
    Until: 24:00,            !- A465
    23.5564287969717,        !- A466
    Through: 04/27,          !- A467
    For: Alldays,            !- A468
    Until: 24:00,            !- A469
    23.5566473741097,        !- A470
    Through: 04/28,          !- A471